<configuration xmlns:xsi="http://www.w3.org/2001/XMLSchema-instance" xsi:noNamespaceSchemaLocation="http://sumo.dlr.de/xsd/sumoConfiguration.xsd"><input><net-file value="net.xml" /><route-files value="rou.xml" /><additional-files value="kamppi\additional.xml" /></input><output><output-prefix value="TIME_" /><tripinfo-output value="outputtrip_results.xml" /><emission-output value="output\emission_results.xml" /></output></configuration>