<configuration xmlns:xsi="http://www.w3.org/2001/XMLSchema-instance" xsi:noNamespaceSchemaLocation="http://sumo.dlr.de/xsd/sumoConfiguration.xsd"><input><net-file value="input\net.xml" /><route-files value="input\rou.xml" /><additional-files value="additional.xml" /></input><output><output-prefix value="TIME_" /><tripinfo-output value="output\trip_results.xml" /><emission-output value="output\emission_results.xml" /></output></configuration>